VERS 161019 507 33785
MODE SEQ
NAME JP 2019-197125 Example 6
PFIL 0 0 0
LANG 0
UNIT MM X W X CM MR CPMM
FNUM 1.26
ENVD 20 1 0
GFAC 0 0
GCAT SCHOTT LACROIX HOYA HIKARI OHARA NIKON-HIKARI NIKON
RAIM 0 2 1 1 0 1 0 0 0
SDMA 0 1 0
FTYP 3 0 3 3 0 0 0
ROPD 2
HYPR 0
PICB 1
XFLN 0 0 0 0 0 0 0 0 0 0 0 0
YFLN 0 15.141 21.63 0 0 0 0 0 0 0 0 0 0
FWGN 1 1 1 1 1 1 1 1 1 1 1 1
VDXN 0 0 0 0 0 0 0 0 0 0 0 0
VDYN 0 0 0 0 0 0 0 0 0 0 0 0
VCXN 0 0 0 0 0 0 0 0 0 0 0 0
VCYN 0 0 0 0 0 0 0 0 0 0 0 0
VANN 0 0 0 0 0 0 0 0 0 0 0 0
WAVM 1 0.4861327 1
WAVM 2 0.5875618 1
WAVM 3 0.6562725 1
WAVM 4 0.550 0
WAVM 5 0.550 0
WAVM 6 0.550 0
WAVM 7 0.550 0
WAVM 8 0.550 0
WAVM 9 0.550 0
WAVM 10 0.550 0
WAVM 11 0.550 0
WAVM 12 0.550 0
WAVM 13 0.550 0
WAVM 14 0.550 0
WAVM 15 0.550 0
WAVM 16 0.550 0
WAVM 17 0.550 0
WAVM 18 0.550 0
WAVM 19 0.550 0
WAVM 20 0.550 0
WAVM 21 0.550 0
WAVM 22 0.550 0
WAVM 23 0.550 0
WAVM 24 0.550 0
PWAV 2
POLS 1 0 1 0 0 1 0
GSTD 0 100 100 100 100 100 100 0 1 1 0 0 1 1 1 1 1 1
NSCD 100 500 0 1.0E-3 5 1.0E-6 0 0 0 0 0 0 1000000 0 2
SURF 0
  TYPE STANDARD
  CURV 0.0 0 0 0 0 ""
  HIDE 0 0 0 0 0 0 0 0 0 0
  MIRR 2 0
  DISZ INFINITY
  DIAM 0 1 0 0 1 ""
  POPS 0 0 0 0 0 0 0 0 1 1 1 1 0 0 0 0
SURF 1
  TYPE STANDARD
  CURV 0.004789356899523603 0 0 0 0
  HIDE 0 0 0 0 0 0 0 0 0 0
  MIRR 2 0
  DISZ 1.8
  GLAS FCD705 0 0 1.55032 75.5 0 0 0 0 0 0
  DIAM 29.25 1 0 0 1 ""
  POPS 0 0 0 0 0 0 0 0 1 1 1 1 0 0 0 0
SURF 2
  TYPE STANDARD
  CURV 0.026618469491241192 0 0 0 0
  HIDE 0 0 0 0 0 0 0 0 0 0
  MIRR 2 0
  DISZ 2.7643
  DIAM 23.395 1 0 0 1 ""
  POPS 0 0 0 0 0 0 0 0 1 1 1 1 0 0 0 0
SURF 3
  TYPE STANDARD
  CURV 0.022219901476956853 0 0 0 0
  HIDE 0 0 0 0 0 0 0 0 0 0
  MIRR 2 0
  DISZ 6.0937
  GLAS TAFD25 0 0 1.90366 31.32 0 0 0 0 0 0
  DIAM 25.09 1 0 0 1 ""
  POPS 0 0 0 0 0 0 0 0 1 1 1 1 0 0 0 0
SURF 4
  TYPE STANDARD
  CURV 0.009140909867886429 0 0 0 0
  HIDE 0 0 0 0 0 0 0 0 0 0
  MIRR 2 0
  DISZ 0.5
  DIAM 22.53 1 0 0 1 ""
  POPS 0 0 0 0 0 0 0 0 1 1 1 1 0 0 0 0
SURF 5
  TYPE EVENASPH
  CURV 0.012736922683058238 0 0 0 0
  HIDE 0 0 0 0 0 0 0 0 0 0
  MIRR 2 0
  PARM 1 0
  PARM 2 -2.4193E-6
  PARM 3 4.2279E-9
  PARM 4 -6.4066E-13
  PARM 5 -6.3635E-15
  PARM 6 1.7532E-18
  PARM 7 0.0
  PARM 8 0.0
  DISZ 1.6663
  CONI 0.0
  GLAS MC-BACD12 0 0 1.58313 59.46 0 0 0 0 0 0
  DIAM 23.7 1 0 0 1 ""
  POPS 0 0 0 0 0 0 0 0 1 1 1 1 0 0 0 0
SURF 6
  TYPE EVENASPH
  CURV 0.031802670788292804 0 0 0 0
  HIDE 0 0 0 0 0 0 0 0 0 0
  MIRR 2 0
  PARM 1 0
  PARM 2 -2.5703E-6
  PARM 3 5.992E-10
  PARM 4 2.0057E-11
  PARM 5 -4.2154E-14
  PARM 6 2.9611E-17
  PARM 7 0.0
  PARM 8 0.0
  DISZ 9.9385
  CONI 0.0
  DIAM 19.66 1 0 0 1 ""
  POPS 0 0 0 0 0 0 0 0 1 1 1 1 0 0 0 0
SURF 7
  TYPE STANDARD
  CURV -0.014086590270392099 0 0 0 0
  HIDE 0 0 0 0 0 0 0 0 0 0
  MIRR 2 0
  DISZ 1.8501
  GLAS TAFD40 0 0 2.00069 25.46 0 0 0 0 0 0
  DIAM 19.545 1 0 0 1 ""
  POPS 0 0 0 0 0 0 0 0 1 1 1 1 0 0 0 0
SURF 8
  TYPE STANDARD
  CURV -0.01595410323581122 0 0 0 0
  HIDE 0 0 0 0 0 0 0 0 0 0
  MIRR 2 0
  DISZ 1.7867
  DIAM 20.64 1 0 0 1 ""
  POPS 0 0 0 0 0 0 0 0 1 1 1 1 0 0 0 0
SURF 9
  TYPE STANDARD
  CURV -0.023687981902381826 0 0 0 0
  HIDE 0 0 0 0 0 0 0 0 0 0
  MIRR 2 0
  DISZ 1.5004
  GLAS FD60 0 0 1.80518 25.46 0 0 0 0 0 0
  DIAM 19.22 1 0 0 1 ""
  POPS 0 0 0 0 0 0 0 0 1 1 1 1 0 0 0 0
SURF 10
  TYPE STANDARD
  CURV 0.031901182895861774 0 0 0 0
  HIDE 0 0 0 0 0 0 0 0 0 0
  MIRR 2 0
  DISZ 9.506
  GLAS TAF1 0 0 1.7725 49.62 0 0 0 0 0 0
  DIAM 21.25 1 0 0 1 ""
  POPS 0 0 0 0 0 0 0 0 1 1 1 1 0 0 0 0
SURF 11
  TYPE STANDARD
  CURV -0.0034240852898556676 0 0 0 0
  HIDE 0 0 0 0 0 0 0 0 0 0
  MIRR 2 0
  DISZ 0.2
  DIAM 21.25 1 0 0 1 ""
  POPS 0 0 0 0 0 0 0 0 1 1 1 1 0 0 0 0
SURF 12
  TYPE STANDARD
  CURV 0.0036136906839776906 0 0 0 0
  HIDE 0 0 0 0 0 0 0 0 0 0
  MIRR 2 0
  DISZ 1.0
  GLAS E-FD8 0 0 1.68893 31.16 0 0 0 0 0 0
  DIAM 23.49 1 0 0 1 ""
  POPS 0 0 0 0 0 0 0 0 1 1 1 1 0 0 0 0
SURF 13
  TYPE STANDARD
  CURV 0.022600555521654724 0 0 0 0
  HIDE 0 0 0 0 0 0 0 0 0 0
  MIRR 2 0
  DISZ 8.1039
  GLAS TAF1 0 0 1.7725 49.62 0 0 0 0 0 0
  DIAM 22.0 1 0 0 1 ""
  POPS 0 0 0 0 0 0 0 0 1 1 1 1 0 0 0 0
SURF 14
  TYPE STANDARD
  CURV -0.0034406577711900647 0 0 0 0
  HIDE 0 0 0 0 0 0 0 0 0 0
  MIRR 2 0
  DISZ 0.15
  DIAM 23.38 1 0 0 1 ""
  POPS 0 0 0 0 0 0 0 0 1 1 1 1 0 0 0 0
SURF 15
  TYPE STANDARD
  CURV 0.015486108960262646 0 0 0 0
  HIDE 0 0 0 0 0 0 0 0 0 0
  MIRR 2 0
  DISZ 7.5729
  GLAS E-FDS1 0 0 1.92286 20.88 0 0 0 0 0 0
  DIAM 24.98 1 0 0 1 ""
  POPS 0 0 0 0 0 0 0 0 1 1 1 1 0 0 0 0
SURF 16
  TYPE STANDARD
  CURV -0.005646980164417475 0 0 0 0
  HIDE 0 0 0 0 0 0 0 0 0 0
  MIRR 2 0
  DISZ 7.1633
  DIAM 24.98 1 0 0 1 ""
  POPS 0 0 0 0 0 0 0 0 1 1 1 1 0 0 0 0
SURF 17
  TYPE EVENASPH
  CURV 0.01142722628079209 0 0 0 0
  HIDE 0 0 0 0 0 0 0 0 0 0
  MIRR 2 0
  PARM 1 0
  PARM 2 -6.1262E-7
  PARM 3 -9.4062E-10
  PARM 4 8.865E-13
  PARM 5 6.6622E-16
  PARM 6 0.0
  PARM 7 0.0
  PARM 8 0.0
  DISZ 5.5489
  CONI 0.0
  GLAS NBFD13 0 0 1.8061 40.73 0 0 0 0 0 0
  DIAM 22.42 1 0 0 1 ""
  POPS 0 0 0 0 0 0 0 0 1 1 1 1 0 0 0 0
SURF 18
  TYPE EVENASPH
  CURV -0.007344149797154582 0 0 0 0
  HIDE 0 0 0 0 0 0 0 0 0 0
  MIRR 2 0
  PARM 1 0
  PARM 2 1.8077E-6
  PARM 3 -2.0087E-9
  PARM 4 2.3893E-12
  PARM 5 -6.7002E-16
  PARM 6 0.0
  PARM 7 0.0
  PARM 8 0.0
  DISZ 0.15
  CONI 0.0
  DIAM 22.42 1 0 0 1 ""
  POPS 0 0 0 0 0 0 0 0 1 1 1 1 0 0 0 0
SURF 19
  TYPE STANDARD
  CURV 0.0012737008665114366 0 0 0 0
  HIDE 0 0 0 0 0 0 0 0 0 0
  MIRR 2 0
  DISZ 5.2948
  GLAS FCD1 0 0 1.497 81.61 0 0 0 0 0 0
  DIAM 21.04 1 0 0 1 ""
  POPS 0 0 0 0 0 0 0 0 1 1 1 1 0 0 0 0
SURF 20
  TYPE STANDARD
  CURV -0.017104572223200984 0 0 0 0
  HIDE 0 0 0 0 0 0 0 0 0 0
  MIRR 2 0
  DISZ 1.0
  GLAS E-F2 0 0 1.62004 36.3 0 0 0 0 0 0
  DIAM 21.04 1 0 0 1 ""
  POPS 0 0 0 0 0 0 0 0 1 1 1 1 0 0 0 0
SURF 21
  TYPE STANDARD
  CURV 0.013337085500054016 0 0 0 0
  HIDE 0 0 0 0 0 0 0 0 0 0
  MIRR 2 0
  DISZ 3.381
  DIAM 17.2 1 0 0 1 ""
  POPS 0 0 0 0 0 0 0 0 1 1 1 1 0 0 0 0
SURF 22
  STOP
  TYPE STANDARD
  CURV 0.0 0 0 0 0
  HIDE 0 0 0 0 0 0 0 0 0 0
  MIRR 2 0
  DISZ 10.909
  DIAM 16.1475 1 0 0 1 ""
  POPS 0 0 0 0 0 0 0 0 1 1 1 1 0 0 0 0
SURF 23
  TYPE STANDARD
  CURV -0.03914997572701505 0 0 0 0
  HIDE 0 0 0 0 0 0 0 0 0 0
  MIRR 2 0
  DISZ 1.0
  GLAS E-FD1 0 0 1.71736 29.5 0 0 0 0 0 0
  DIAM 14.9 1 0 0 1 ""
  POPS 0 0 0 0 0 0 0 0 1 1 1 1 0 0 0 0
SURF 24
  TYPE STANDARD
  CURV 0.025001250062503127 0 0 0 0
  HIDE 0 0 0 0 0 0 0 0 0 0
  MIRR 2 0
  DISZ 8.1122
  GLAS FCD1 0 0 1.497 81.61 0 0 0 0 0 0
  DIAM 17.52 1 0 0 1 ""
  POPS 0 0 0 0 0 0 0 0 1 1 1 1 0 0 0 0
SURF 25
  TYPE STANDARD
  CURV -0.025001250062503127 0 0 0 0
  HIDE 0 0 0 0 0 0 0 0 0 0
  MIRR 2 0
  DISZ 0.2
  DIAM 17.52 1 0 0 1 ""
  POPS 0 0 0 0 0 0 0 0 1 1 1 1 0 0 0 0
SURF 26
  TYPE STANDARD
  CURV 0.01514692517418964 0 0 0 0
  HIDE 0 0 0 0 0 0 0 0 0 0
  MIRR 2 0
  DISZ 7.6222
  GLAS TAF1 0 0 1.7725 49.62 0 0 0 0 0 0
  DIAM 18.8 1 0 0 1 ""
  POPS 0 0 0 0 0 0 0 0 1 1 1 1 0 0 0 0
SURF 27
  TYPE STANDARD
  CURV -0.022524551761419948 0 0 0 0
  HIDE 0 0 0 0 0 0 0 0 0 0
  MIRR 2 0
  DISZ 1.0844
  DIAM 18.8 1 0 0 1 ""
  POPS 0 0 0 0 0 0 0 0 1 1 1 1 0 0 0 0
SURF 28
  TYPE EVENASPH
  CURV -0.002 0 0 0 0
  HIDE 0 0 0 0 0 0 0 0 0 0
  MIRR 2 0
  PARM 1 0
  PARM 2 -4.371E-6
  PARM 3 -8.1297E-9
  PARM 4 3.9617E-11
  PARM 5 -5.2134E-14
  PARM 6 0.0
  PARM 7 0.0
  PARM 8 0.0
  DISZ 4.4095
  CONI 0.0
  GLAS NBFD13 0 0 1.8061 40.73 0 0 0 0 0 0
  DIAM 19.01 1 0 0 1 ""
  POPS 0 0 0 0 0 0 0 0 1 1 1 1 0 0 0 0
SURF 29
  TYPE EVENASPH
  CURV -0.015870446372174666 0 0 0 0
  HIDE 0 0 0 0 0 0 0 0 0 0
  MIRR 2 0
  PARM 1 0
  PARM 2 4.0846E-6
  PARM 3 -8.8949E-9
  PARM 4 3.9681E-11
  PARM 5 -4.464E-14
  PARM 6 0.0
  PARM 7 0.0
  PARM 8 0.0
  DISZ 3.1483
  CONI 0.0
  DIAM 19.01 1 0 0 1 ""
  POPS 0 0 0 0 0 0 0 0 1 1 1 1 0 0 0 0
SURF 30
  TYPE STANDARD
  CURV -0.0015322716325342945 0 0 0 0
  HIDE 0 0 0 0 0 0 0 0 0 0
  MIRR 2 0
  DISZ 3.0248
  GLAS TAFD40 0 0 2.00069 25.46 0 0 0 0 0 0
  DIAM 19.01 1 0 0 1 ""
  POPS 0 0 0 0 0 0 0 0 1 1 1 1 0 0 0 0
SURF 31
  TYPE STANDARD
  CURV -0.008321440607798023 0 0 0 0
  HIDE 0 0 0 0 0 0 0 0 0 0
  MIRR 2 0
  DISZ 1.5
  GLAS E-F2 0 0 1.62004 36.3 0 0 0 0 0 0
  DIAM 19.01 1 0 0 1 ""
  POPS 0 0 0 0 0 0 0 0 1 1 1 1 0 0 0 0
SURF 32
  TYPE STANDARD
  CURV 0.02678502074499857 0 0 0 0
  HIDE 0 0 0 0 0 0 0 0 0 0
  MIRR 2 0
  DISZ 18.5186
  DIAM 17.305 1 0 0 1 ""
  POPS 0 0 0 0 0 0 0 0 1 1 1 1 0 0 0 0
SURF 33
  TYPE STANDARD
  CURV 0.0 0 0 0 0
  HIDE 0 0 0 0 0 0 0 0 0 0
  MIRR 2 0
  DISZ 2.5
  GLAS N-BK7 0 0 1.5168 64.2 0 0 0 0 0 0
  DIAM 23.17 1 0 0 1 ""
  POPS 0 0 0 0 0 0 0 0 1 1 1 1 0 0 0 0
SURF 34
  TYPE STANDARD
  CURV 0.0 0 0 0 0
  HIDE 0 0 0 0 0 0 0 0 0 0
  MIRR 2 0
  DISZ 1.0
  DIAM 23.17 1 0 0 1 ""
  POPS 0 0 0 0 0 0 0 0 1 1 1 1 0 0 0 0
SURF 35
  TYPE STANDARD
  CURV 0.0 0 0 0 0 ""
  HIDE 0 0 0 0 0 0 0 0 0 0
  MIRR 2 0
  DISZ 0
  DIAM 21.63 1 0 0 1 ""
  POPS 0 0 0 0 0 0 0 0 1 1 1 1 0 0 0 0
TOL TOFF   0   0              0              0   0 0 0 0
