VERS 161019 507 33785
MODE SEQ
NAME Nikkor-Z-58mmf0.95-WO2019229849A1
PFIL 0 0 0
LANG 0
UNIT MM X W X CM MR CPMM
FNUM 0.98
ENVD 20 1 0
GFAC 0 0
GCAT SCHOTT LACROIX HOYA HIKARI OHARA NIKON-HIKARI NIKON
RAIM 0 2 1 1 0 1 0 0 0
SDMA 0 1 0
FTYP 3 0 3 3 0 0 0
ROPD 2
HYPR 0
PICB 1
XFLN 0 0 0 0 0 0 0 0 0 0 0 0
YFLN 0 15.141 21.63 0 0 0 0 0 0 0 0 0 0
FWGN 1 1 1 1 1 1 1 1 1 1 1 1
VDXN 0 0 0 0 0 0 0 0 0 0 0 0
VDYN 0 0 0 0 0 0 0 0 0 0 0 0
VCXN 0 0 0 0 0 0 0 0 0 0 0 0
VCYN 0 0 0 0 0 0 0 0 0 0 0 0
VANN 0 0 0 0 0 0 0 0 0 0 0 0
WAVM 1 0.4861327 1
WAVM 2 0.5875618 1
WAVM 3 0.6562725 1
WAVM 4 0.550 0
WAVM 5 0.550 0
WAVM 6 0.550 0
WAVM 7 0.550 0
WAVM 8 0.550 0
WAVM 9 0.550 0
WAVM 10 0.550 0
WAVM 11 0.550 0
WAVM 12 0.550 0
WAVM 13 0.550 0
WAVM 14 0.550 0
WAVM 15 0.550 0
WAVM 16 0.550 0
WAVM 17 0.550 0
WAVM 18 0.550 0
WAVM 19 0.550 0
WAVM 20 0.550 0
WAVM 21 0.550 0
WAVM 22 0.550 0
WAVM 23 0.550 0
WAVM 24 0.550 0
PWAV 2
POLS 1 0 1 0 0 1 0
GSTD 0 100 100 100 100 100 100 0 1 1 0 0 1 1 1 1 1 1
NSCD 100 500 0 1.0E-3 5 1.0E-6 0 0 0 0 0 0 1000000 0 2
SURF 0
  TYPE STANDARD
  CURV 0.0 0 0 0 0 ""
  HIDE 0 0 0 0 0 0 0 0 0 0
  MIRR 2 0
  DISZ INFINITY
  DIAM 0 1 0 0 1 ""
  POPS 0 0 0 0 0 0 0 0 1 1 1 1 0 0 0 0
SURF 1
  TYPE EVENASPH
  CURV 0.009217609320846545 0 0 0 0
  HIDE 0 0 0 0 0 0 0 0 0 0
  MIRR 2 0
  PARM 1 0
  PARM 2 -3.82177E-7
  PARM 3 -6.06486E-11
  PARM 4 -3.80172E-15
  PARM 5 -1.32266E-18
  PARM 6 0.0
  PARM 7 0.0
  PARM 8 0.0
  DISZ 7.65
  CONI 0.0
  GLAS J-LASFH9A 0 0 1.90265 35.77 0 0 0 0 0 0
  DIAM 33.25 1 0 0 1 ""
  POPS 0 0 0 0 0 0 0 0 1 1 1 1 0 0 0 0
SURF 2
  TYPE STANDARD
  CURV -0.0011784809380708267 0 0 0 0
  HIDE 0 0 0 0 0 0 0 0 0 0
  MIRR 2 0
  DISZ 2.8
  GLAS J-KZFH4 0 0 1.552981 55.07 0 0 0 0 0 0
  DIAM 32.65 1 0 0 1 ""
  POPS 0 0 0 0 0 0 0 0 1 1 1 1 0 0 0 0
SURF 3
  TYPE STANDARD
  CURV 0.01989970548435883 0 0 0 0
  HIDE 0 0 0 0 0 0 0 0 0 0
  MIRR 2 0
  DISZ 18.12
  DIAM 29.15 1 0 0 1 ""
  POPS 0 0 0 0 0 0 0 0 1 1 1 1 0 0 0 0
SURF 4
  TYPE STANDARD
  CURV -0.016469038208168644 0 0 0 0
  HIDE 0 0 0 0 0 0 0 0 0 0
  MIRR 2 0
  DISZ 2.8
  GLAS J-KZFH1 0 0 1.61266 44.46 0 0 0 0 0 0
  DIAM 29.25 1 0 0 1 ""
  POPS 0 0 0 0 0 0 0 0 1 1 1 1 0 0 0 0
SURF 5
  TYPE STANDARD
  CURV 4.004004004004004E-4 0 0 0 0
  HIDE 0 0 0 0 0 0 0 0 0 0
  MIRR 2 0
  DISZ 9.15
  GLAS J-PSKH1 0 0 1.59319 67.9 0 0 0 0 0 0
  DIAM 32.65 1 0 0 1 ""
  POPS 0 0 0 0 0 0 0 0 1 1 1 1 0 0 0 0
SURF 6
  TYPE STANDARD
  CURV -0.012946827379950543 0 0 0 0
  HIDE 0 0 0 0 0 0 0 0 0 0
  MIRR 2 0
  DISZ 0.4
  DIAM 32.65 1 0 0 1 ""
  POPS 0 0 0 0 0 0 0 0 1 1 1 1 0 0 0 0
SURF 7
  TYPE STANDARD
  CURV 0.008790204196443482 0 0 0 0
  HIDE 0 0 0 0 0 0 0 0 0 0
  MIRR 2 0
  DISZ 10.95
  GLAS J-LASFH22 0 0 1.8485 43.79 0 0 0 0 0 0
  DIAM 35.5 1 0 0 1 ""
  POPS 0 0 0 0 0 0 0 0 1 1 1 1 0 0 0 0
SURF 8
  TYPE STANDARD
  CURV -0.005616084465910367 0 0 0 0
  HIDE 0 0 0 0 0 0 0 0 0 0
  MIRR 2 0
  DISZ 0.4
  DIAM 35.5 1 0 0 1 ""
  POPS 0 0 0 0 0 0 0 0 1 1 1 1 0 0 0 0
SURF 9
  TYPE STANDARD
  CURV 0.014152478806662986 0 0 0 0
  HIDE 0 0 0 0 0 0 0 0 0 0
  MIRR 2 0
  DISZ 9.74
  GLAS J-PSKH1 0 0 1.59319 67.9 0 0 0 0 0 0
  DIAM 32.25 1 0 0 1 ""
  POPS 0 0 0 0 0 0 0 0 1 1 1 1 0 0 0 0
SURF 10
  TYPE STANDARD
  CURV -5.08001016002032E-4 0 0 0 0
  HIDE 0 0 0 0 0 0 0 0 0 0
  MIRR 2 0
  DISZ 0.2
  DIAM 32.25 1 0 0 1 ""
  POPS 0 0 0 0 0 0 0 0 1 1 1 1 0 0 0 0
SURF 11
  TYPE STANDARD
  CURV 0.003452001643152782 0 0 0 0
  HIDE 0 0 0 0 0 0 0 0 0 0
  MIRR 2 0
  DISZ 8.0
  GLAS J-PSKH1 0 0 1.59319 67.9 0 0 0 0 0 0
  DIAM 30.25 1 0 0 1 ""
  POPS 0 0 0 0 0 0 0 0 1 1 1 1 0 0 0 0
SURF 12
  TYPE STANDARD
  CURV -0.010300040170156663 0 0 0 0
  HIDE 0 0 0 0 0 0 0 0 0 0
  MIRR 2 0
  DISZ 2.8
  GLAS J-KZFH9 0 0 1.738 32.33 0 0 0 0 0 0
  DIAM 29.6 1 0 0 1 ""
  POPS 0 0 0 0 0 0 0 0 1 1 1 1 0 0 0 0
SURF 13
  TYPE STANDARD
  CURV 0.021243149084420276 0 0 0 0
  HIDE 0 0 0 0 0 0 0 0 0 0
  MIRR 2 0
  DISZ 8.7
  DIAM 24.9 1 0 0 1 ""
  POPS 0 0 0 0 0 0 0 0 1 1 1 1 0 0 0 0
SURF 14
  STOP
  TYPE STANDARD
  CURV 0.0 0 0 0 0
  HIDE 0 0 0 0 0 0 0 0 0 0
  MIRR 2 0
  DISZ 5.29
  DIAM 23.85 1 0 0 1 ""
  POPS 0 0 0 0 0 0 0 0 1 1 1 1 0 0 0 0
SURF 15
  TYPE STANDARD
  CURV -0.01050089257586895 0 0 0 0
  HIDE 0 0 0 0 0 0 0 0 0 0
  MIRR 2 0
  DISZ 2.2
  GLAS J-KZFH1 0 0 1.61266 44.46 0 0 0 0 0 0
  DIAM 25.0 1 0 0 1 ""
  POPS 0 0 0 0 0 0 0 0 1 1 1 1 0 0 0 0
SURF 16
  TYPE STANDARD
  CURV 0.024269488399184545 0 0 0 0
  HIDE 0 0 0 0 0 0 0 0 0 0
  MIRR 2 0
  DISZ 11.55
  GLAS J-FKH1 0 0 1.49782 82.57 0 0 0 0 0 0
  DIAM 25.0 1 0 0 1 ""
  POPS 0 0 0 0 0 0 0 0 1 1 1 1 0 0 0 0
SURF 17
  TYPE STANDARD
  CURV -0.003661769660041305 0 0 0 0
  HIDE 0 0 0 0 0 0 0 0 0 0
  MIRR 2 0
  DISZ 0.2
  DIAM 24.05 1 0 0 1 ""
  POPS 0 0 0 0 0 0 0 0 1 1 1 1 0 0 0 0
SURF 18
  TYPE STANDARD
  CURV 0.01312801123757762 0 0 0 0
  HIDE 0 0 0 0 0 0 0 0 0 0
  MIRR 2 0
  DISZ 9.5
  GLAS J-LASF08A 0 0 1.883 40.69 0 0 0 0 0 0
  DIAM 25.5 1 0 0 1 ""
  POPS 0 0 0 0 0 0 0 0 1 1 1 1 0 0 0 0
SURF 19
  TYPE STANDARD
  CURV -0.009844942160964805 0 0 0 0
  HIDE 0 0 0 0 0 0 0 0 0 0
  MIRR 2 0
  DISZ 0.2
  DIAM 24.7 1 0 0 1 ""
  POPS 0 0 0 0 0 0 0 0 1 1 1 1 0 0 0 0
SURF 20
  TYPE EVENASPH
  CURV 0.005677688953488373 0 0 0 0
  HIDE 0 0 0 0 0 0 0 0 0 0
  MIRR 2 0
  PARM 1 0
  PARM 2 -1.15028E-6
  PARM 3 -4.51771E-10
  PARM 4 2.7267E-13
  PARM 5 -7.66812E-17
  PARM 6 0.0
  PARM 7 0.0
  PARM 8 0.0
  DISZ 7.45
  CONI 0.0
  GLAS J-LASFH21 0 0 1.95375 32.33 0 0 0 0 0 0
  DIAM 23.15 1 0 0 1 ""
  POPS 0 0 0 0 0 0 0 0 1 1 1 1 0 0 0 0
SURF 21
  TYPE STANDARD
  CURV -0.01487630353609735 0 0 0 0
  HIDE 0 0 0 0 0 0 0 0 0 0
  MIRR 2 0
  DISZ 1.8
  GLAS J-KZFH9 0 0 1.738 32.33 0 0 0 0 0 0
  DIAM 22.55 1 0 0 1 ""
  POPS 0 0 0 0 0 0 0 0 1 1 1 1 0 0 0 0
SURF 22
  TYPE STANDARD
  CURV 0.01801477211313277 0 0 0 0
  HIDE 0 0 0 0 0 0 0 0 0 0
  MIRR 2 0
  DISZ 2.68
  DIAM 19.55 1 0 0 1 ""
  POPS 0 0 0 0 0 0 0 0 1 1 1 1 0 0 0 0
SURF 23
  TYPE STANDARD
  CURV 0.014003052665481075 0 0 0 0
  HIDE 0 0 0 0 0 0 0 0 0 0
  MIRR 2 0
  DISZ 6.35
  GLAS J-LASF08A 0 0 1.883 40.69 0 0 0 0 0 0
  DIAM 19.55 1 0 0 1 ""
  POPS 0 0 0 0 0 0 0 0 1 1 1 1 0 0 0 0
SURF 24
  TYPE STANDARD
  CURV -0.008693762225603129 0 0 0 0
  HIDE 0 0 0 0 0 0 0 0 0 0
  MIRR 2 0
  DISZ 1.81
  GLAS J-SF15 0 0 1.69895 30.13 0 0 0 0 0 0
  DIAM 19.55 1 0 0 1 ""
  POPS 0 0 0 0 0 0 0 0 1 1 1 1 0 0 0 0
SURF 25
  TYPE STANDARD
  CURV 0.021302430607332296 0 0 0 0
  HIDE 0 0 0 0 0 0 0 0 0 0
  MIRR 2 0
  DISZ 0.8
  DIAM 19.55 1 0 0 1 ""
  POPS 0 0 0 0 0 0 0 0 1 1 1 1 0 0 0 0
SURF 26
  TYPE STANDARD
  CURV 0.018089397803947107 0 0 0 0
  HIDE 0 0 0 0 0 0 0 0 0 0
  MIRR 2 0
  DISZ 9.11
  GLAS J-LASF08A 0 0 1.883 40.69 0 0 0 0 0 0
  DIAM 19.25 1 0 0 1 ""
  POPS 0 0 0 0 0 0 0 0 1 1 1 1 0 0 0 0
SURF 27
  TYPE STANDARD
  CURV -0.006942467769593379 0 0 0 0
  HIDE 0 0 0 0 0 0 0 0 0 0
  MIRR 2 0
  DISZ 3.0
  GLAS J-LASFH2 0 0 1.765538 46.76 0 0 0 0 0 0
  DIAM 19.0 1 0 0 1 ""
  POPS 0 0 0 0 0 0 0 0 1 1 1 1 0 0 0 0
SURF 28
  TYPE EVENASPH
  CURV 0.0189186121306141 0 0 0 0
  HIDE 0 0 0 0 0 0 0 0 0 0
  MIRR 2 0
  PARM 1 0
  PARM 2 3.18645E-6
  PARM 3 -1.14718E-8
  PARM 4 7.74567E-11
  PARM 5 -2.24225E-13
  PARM 6 3.3479E-16
  PARM 7 -1.7047E-19
  PARM 8 0.0
  DISZ 14.5
  CONI 0.0
  DIAM 19.0 1 0 0 1 ""
  POPS 0 0 0 0 0 0 0 0 1 1 1 1 0 0 0 0
SURF 29
  TYPE STANDARD
  CURV 0.0 0 0 0 0
  HIDE 0 0 0 0 0 0 0 0 0 0
  MIRR 2 0
  DISZ 1.6
  GLAS J-BK7A 0 0 1.5168 64.14 0 0 0 0 0 0
  DIAM 21.7 1 0 0 1 ""
  POPS 0 0 0 0 0 0 0 0 1 1 1 1 0 0 0 0
SURF 30
  TYPE STANDARD
  CURV 0.0 0 0 0 0
  HIDE 0 0 0 0 0 0 0 0 0 0
  MIRR 2 0
  DISZ 1.0
  DIAM 21.7 1 0 0 1 ""
  POPS 0 0 0 0 0 0 0 0 1 1 1 1 0 0 0 0
SURF 31
  TYPE STANDARD
  CURV 0.0 0 0 0 0 ""
  HIDE 0 0 0 0 0 0 0 0 0 0
  MIRR 2 0
  DISZ 0
  DIAM 21.63 1 0 0 1 ""
  POPS 0 0 0 0 0 0 0 0 1 1 1 1 0 0 0 0
TOL TOFF   0   0              0              0   0 0 0 0
